trunk/ipss.tools/testData/psse_uguide_sample.psse
0,   100.00          / PSS/E-30.0    TUE, MAY 11 2004  13:26
PSS/E PROGRAM APPLICATION GUIDE EXAMPLE
BASE CASE INCLUDING SEQUENCE DATA
   101,'NUC-A       ',  21.6000,2,     0.000,     0.000,   1,  77,1.02000,  16.5465,  11
   102,'NUC-B       ',  21.6000,2,     0.000,     0.000,   1,  77,1.02000,  16.5465,  11
   151,'NUCPANT     ', 500.0000,1,     0.000,  -600.000,   1,   1,1.01190,  10.8887,   1
   152,'MID500      ', 500.0000,1,     0.000,     0.000,   1,   1,1.01707,  -1.1152,   1
   153,'MID230      ', 230.0000,1,     0.000,     0.000,   1,   1,0.99300,  -3.2357,   1
   154,'DOWNTN      ', 230.0000,1,     0.000,   300.000,   1,   1,0.93892,  -9.8857,   1
   201,'HYDRO       ', 500.0000,1,     0.000,   300.000,   2,   2,1.04000,   6.1599,  22
   202,'EAST500     ', 500.0000,1,     0.000,     0.000,   2,   2,1.00879,  -1.3172,   2
   203,'EAST230     ', 230.0000,1,     0.000,    50.000,   2,   2,0.96651,  -6.9180,   2
   204,'SUB500      ', 500.0000,1,     0.000,     0.000,   2,   2,0.97873,  -3.7331,   2
   205,'SUB230      ', 230.0000,1,     0.000,   300.000,   2,   2,0.94902,  -9.1798,   2
   206,'URBGEN      ',  18.0000,2,     0.000,     0.000,   2,   2,1.02361,  -2.9699,  22
   211,'HYDRO_G     ',  20.0000,2,     0.000,     0.000,   2,   2,1.04042,  12.9204,  22
  3001,'MINE        ', 230.0000,1,     0.000,     0.000,   5,   5,1.02979,  -1.3728,  55
  3002,'E. MINE     ', 500.0000,1,     0.000,     0.000,   5,   5,1.02791,  -1.8253,   5
  3003,'S. MINE     ', 230.0000,1,     0.000,     0.000,   5,   5,1.02333,  -2.2538,   5
  3004,'WEST        ', 500.0000,1,     0.000,     0.000,   5,   5,1.01647,  -3.4289,   5
  3005,'WEST        ', 230.0000,1,     0.000,     0.000,   5,   5,0.99478,  -5.1800,   5
  3006,'UPTOWN      ', 230.0000,1,     0.000,     0.000,   5,   5,0.99404,  -3.7921,   5
  3007,'RURAL       ', 230.0000,1,     0.000,     0.000,   5,   5,0.96370,  -8.5380,   5
  3008,'CATDOG      ', 230.0000,1,     0.000,     0.000,   5,   5,0.95861,  -9.0489,  55
  3011,'MINE_G      ',  13.8000,3,     0.000,     0.000,   5,   5,1.04000,   0.0000,  55
  3018,'CATDOG_G    ',  13.8000,2,     0.000,     0.000,   5,   5,1.02177,  -4.0804,  55
0 / END OF BUS DATA, BEGIN LOAD DATA
   153,'1 ',1,   1,   1,   200.000,   100.000,     0.000,     0.000,     0.000,     0.000,   1
   154,'1 ',1,   2,   1,   600.000,   450.000,     0.000,     0.000,     0.000,     0.000,   1
   154,'2 ',1,   2,   1,   400.000,   350.000,     0.000,     0.000,     0.000,     0.000, 100
   203,'1 ',1,   2,   2,   300.000,   150.000,     0.000,     0.000,     0.000,     0.000,   2
   205,'1 ',1,   2,   2,  1200.000,   700.000,     0.000,     0.000,     0.000,     0.000,   2
  3005,'1 ',1,   5,   5,   100.000,    50.000,     0.000,     0.000,     0.000,     0.000,   5
  3007,'1 ',1,   5,   5,   200.000,    75.000,     0.000,     0.000,     0.000,     0.000,   5
  3008,'1 ',1,   5,   5,   200.000,    75.000,     0.000,     0.000,     0.000,     0.000,   5
0 / END OF LOAD DATA, BEGIN GENERATOR DATA
   101,'1 ',   750.000,    81.194,   600.000,  -100.000,1.02000,     0,   900.000,   0.01000,   0.30000,   0.00000,   0.00000,1.00000,1,  100.0,   810.000,     0.000,  11,0.6667,   1,0.3333
   102,'1 ',   750.000,    81.194,   600.000,  -100.000,1.02000,     0,   900.000,   0.01000,   0.30000,   0.00000,   0.00000,1.00000,1,  100.0,   810.000,     0.000,  11,0.6667,   1,0.3333
   206,'1 ',   800.000,   600.000,   600.000,     0.000,0.98000,   205,  1000.000,   0.01000,   0.25000,   0.00000,   0.00000,1.00000,1,  100.0,   900.000,     0.000,   2,0.4000,  22,0.6000
   211,'1 ',   600.000,    17.750,   400.000,  -100.000,1.04000,   201,   725.000,   0.01000,   0.26000,   0.00000,   0.00000,1.00000,1,  100.0,   616.250,     0.000,   2,0.4000,  22,0.6000
  3011,'1 ',   258.657,   104.042,   600.000,  -100.000,1.04000,     0,  1000.000,   0.01000,   0.35000,   0.00000,   0.00000,1.00000,1,  100.0,   900.000,     0.000,  55,0.3846,   5,0.3077,  22,0.2308,  11,0.0769
  3018,'1 ',   100.000,    80.000,    80.000,     0.000,1.02000,  3008,   130.000,   0.01000,   0.35000,   0.00000,   0.00000,1.00000,1,  100.0,   117.000,     0.000,  55,0.5556,   5,0.4444
0 / END OF GENERATOR DATA, BEGIN BRANCH DATA
   151,    152,'1 ',   0.00260,   0.04600,   3.50000, 1200.00, 1300.00,    1.00,  0.00000,  0.00000,  0.00000,  0.00000,1,   0.00,   1,1.0000
   151,    152,'2 ',   0.00260,   0.04600,   3.50000, 1200.00, 1300.00,    1.00,  0.00000,  0.00000,  0.00000,  0.00000,1,   0.00,   1,1.0000
   151,    201,'1 ',   0.00100,   0.01500,   1.20000, 1200.00, 1300.00,    1.00,  0.00000,  0.00000,  0.00000,  0.00000,1,   0.00,   1,1.0000
   152,   -202,'1 ',   0.00080,   0.01000,   0.95000, 1200.00, 1300.00,    1.00,  0.00000,  0.00000,  0.00000,  0.00000,1,   0.00,   1,1.0000
   152,   3004,'1 ',   0.00300,   0.03000,   2.50000,    0.00,    0.00,    1.00,  0.00000,  0.00000,  0.00000,  0.00000,1,   0.00,   1,1.0000
   153,    154,'1 ',   0.00500,   0.04500,   0.10000,  300.00,  350.00,    1.00,  0.00000,  0.00000,  0.00000,  0.00000,1,   0.00,   1,0.7500, 100,0.2500
   153,    154,'2 ',   0.00600,   0.05400,   0.15000,  300.00,  350.00,    1.00,  0.00000,  0.00000,  0.00000,  0.00000,1,   0.00,   1,1.0000
   153,   3006,'1 ',   0.00100,   0.01200,   0.03000,    0.00,    0.00,    1.00,  0.00000,  0.00000,  0.00000,  0.00000,1,   0.00,   1,1.0000
   154,    203,'1 ',   0.00400,   0.04000,   0.10000,  200.00,  250.00,    1.00,  0.00000,  0.00000,  0.00000,  0.00000,1,   0.00,   1,1.0000
   154,    205,'1 ',   0.00033,   0.00333,   0.09000,  600.00,  660.00,    1.00,  0.00000,  0.00000,  0.00000,  0.00000,1,   0.00,   1,1.0000
   154,   3008,'1 ',   0.00270,   0.02200,   0.30000,  400.00,  440.00,    1.00,  0.00000,  0.00000,  0.00000,  0.00000,1,   0.00,   1,1.0000
   201,    202,'1 ',   0.00200,   0.02500,   2.00000, 1200.00, 1300.00,    1.00,  0.00000,  0.00000,  0.00000,  0.00000,1,   0.00,  22,1.0000
   201,    204,'1 ',   0.00300,   0.03000,   2.50000, 1200.00, 1300.00,    1.00,  0.00000,  0.00000,  0.00000,  0.00000,1,   0.00,  22,1.0000
   203,   -205,'1 ',   0.00500,   0.04500,   0.08000,  200.00,  250.00,    1.00,  0.00000,  0.00000,  0.00000,  0.00000,1,   0.00,   2,1.0000
   203,   -205,'2 ',   0.00500,   0.04500,   0.08000,  200.00,  250.00,    1.00,  0.00000,  0.00000,  0.00000,  0.00000,1,   0.00,   2,1.0000
  3001,   3003,'1 ',   0.00000,   0.00800,   0.00000,    0.00,    0.00,    1.00,  0.00000,  0.00000,  0.00000,  0.00000,1,   0.00,  55,1.0000
  3002,   3004,'1 ',   0.00600,   0.05400,   0.09000,    0.00,    0.00,    1.00,  0.00000,  0.00000,  0.00000,  0.00000,1,   0.00,   5,1.0000
  3003,   3005,'1 ',   0.00600,   0.05400,   0.09000,    0.00,    0.00,    1.00,  0.00000,  0.00000,  0.00000,  0.00000,1,   0.00,   5,1.0000
  3003,   3005,'2 ',   0.00600,   0.05400,   0.09000,    0.00,    0.00,    1.00,  0.00000,  0.00000,  0.00000,  0.00000,1,   0.00,   5,1.0000
  3005,   3006,'1 ',   0.00350,   0.03000,   0.07000,    0.00,    0.00,    1.00,  0.00000,  0.00000,  0.00000,  0.00000,1,   0.00,   5,1.0000
  3005,   3007,'1 ',   0.00300,   0.02500,   0.06000,    0.00,    0.00,    1.00,  0.00000,  0.00000,  0.00000,  0.00000,1,   0.00,   5,1.0000
  3005,   3008,'1 ',   0.00600,   0.05000,   0.12000,    0.00,    0.00,    1.00,  0.00000,  0.00000,  0.00000,  0.00000,1,   0.00,   5,1.0000
  3007,   3008,'1 ',   0.00300,   0.02500,   0.06000,    0.00,    0.00,    1.00,  0.00000,  0.00000,  0.00000,  0.00000,1,   0.00,   5,1.0000
0 / END OF BRANCH DATA, BEGIN TRANSFORMER DATA
   151,   101,     0,'1 ',1,1,1,   0.00000,   0.00000,2,'            ',1,   1,1.0000
   0.00030,   0.01360,  100.00
1.00000,   0.000,   0.000, 1250.00, 1350.00, 1750.00, 0,      0, 1.10000, 0.90000, 1.10000, 0.90000,   5, 0, 0.00000, 0.00000
1.00000,   0.000
   151,   102,     0,'1 ',1,1,1,   0.00000,   0.00000,2,'            ',1,   1,1.0000
   0.00030,   0.01360,  100.00
1.00000,   0.000,   0.000, 1250.00, 1350.00, 1750.00, 0,      0, 1.10000, 0.90000, 1.10000, 0.90000,   5, 0, 0.00000, 0.00000
1.00000,   0.000
   152,   153,     0,'1 ',1,1,1,   0.00000,   0.00000,2,'            ',1,   1,1.0000
   0.00000,   0.00500,  100.00
1.01000,   0.000,   0.000, 2500.00, 3000.00, 3500.00, 1,    154, 1.05000, 0.95000, 1.00000, 0.98000,  33, 0, 0.00000, 0.00000
1.00000,   0.000
   201,   211,     0,'1 ',1,1,1,   0.00000,   0.00000,2,'            ',1,  22,1.0000
   0.00070,   0.02125,  100.00
1.00000,   0.000,   0.000,  800.00, 1000.00, 1120.00, 0,    201, 1.10000, 0.90000, 1.05000, 0.95000,   5, 0, 0.00000, 0.00000
1.00000,   0.000
   202,   203,     0,'1 ',1,1,1,   0.00000,   0.00000,2,'            ',1,   2,1.0000
   0.00040,   0.01625,  100.00
1.00000,   0.000,   0.000,  800.00, 1040.00, 1200.00, 3,      0,30.00000,-30.0000,555.0000,545.0000,  33, 0, 0.00000, 0.00000
1.00000,   0.000
   204,   205,     0,'1 ',1,1,1,   0.00000,   0.00000,2,'            ',1,   2,1.0000
   0.00030,   0.01500,  100.00
1.00000,   0.000,   0.000,  800.00, 1040.00, 1200.00, 1,    205, 1.05000, 0.95000, 1.00000, 0.98000,  33, 0, 0.00000, 0.00000
1.00000,   0.000
   205,   206,     0,'1 ',1,1,1,   0.00000,   0.00000,2,'            ',1,   2,1.0000
   0.00026,   0.01333,  100.00
1.00000,   0.000,   0.000,  900.00, 1080.00, 1350.00, 0,      0, 1.10000, 0.90000, 1.10000, 0.90000,   5, 0, 0.00000, 0.00000
1.00000,   0.000
  3001,  3002,     0,'1 ',1,1,1,   0.00000,   0.00000,1,'            ',1,  55,1.0000
   0.00030,   0.01500,  100.00
1.00000,   0.000,   0.000,  800.00, 1040.00, 1200.00, 0,      0, 1.10000, 0.90000, 1.05000, 0.95000,  33, 0, 0.00000, 0.00000
1.00000,   0.000
  3001,  3011,     0,'1 ',1,1,1,   0.00000,   0.00000,2,'            ',1,  55,1.0000
   0.00020,   0.01000,  100.00
1.00000,   0.000,   0.000, 1300.00, 1560.00, 1820.00, 0,      0, 1.10000, 0.90000, 1.05000, 0.95000,   5, 0, 0.00000, 0.00000
1.00000,   0.000
  3004,  3005,     0,'1 ',1,1,1,   0.00000,   0.00000,1,'            ',1,   5,1.0000
   0.00040,   0.01625,  100.00
1.00000,   0.000,   0.000,  800.00, 1040.00, 1200.00, 0,      0, 1.10000, 0.90000, 1.05000, 0.95000,  33, 0, 0.00000, 0.00000
1.00000,   0.000
  3008,  3018,     0,'1 ',1,1,1,   0.00000,   0.00000,2,'            ',1,  55,1.0000
   0.00021,   0.08500,  100.00
1.00000,   0.000,   0.000,  150.00,  200.00,  250.00, 0,      0, 1.10000, 0.90000, 1.05000, 0.95000,   5, 0, 0.00000, 0.00000
1.00000,   0.000
0 / END OF TRANSFORMER DATA, BEGIN AREA DATA
   1,   101,   250.000,    10.000,'FLAPCO      '
   2,   206,  -100.000,    10.000,'LIGHTCO     '
   5,  3011,  -150.000,    10.000,'WORLD       '
0 / END OF AREA DATA, BEGIN TWO-TERMINAL DC DATA
0 / END OF TWO-TERMINAL DC DATA, BEGIN VSC DC LINE DATA
0 / END OF VSC DC LINE DATA, BEGIN SWITCHED SHUNT DATA
0 / END OF SWITCHED SHUNT DATA, BEGIN IMPEDANCE CORRECTION DATA
0 / END OF IMPEDANCE CORRECTION DATA, BEGIN MULTI-TERMINAL DC DATA
0 / END OF MULTI-TERMINAL DC DATA, BEGIN MULTI-SECTION LINE DATA
   201,    205,'&1',   204
  3005,  -3008,'&1',  3007
0 / END OF MULTI-SECTION LINE DATA, BEGIN ZONE DATA
   1,'FIRST       '
   2,'SECOND      '
   5,'FIFTH       '
  77,'PLANT       '
0 / END OF ZONE DATA, BEGIN INTER-AREA TRANSFER DATA
   1,   2,'A',    70.00
   1,   2,'B',    30.00
   1,   5,'A',   100.00
   1,   5,'B',    50.00
0 / END OF INTER-AREA TRANSFER DATA, BEGIN OWNER DATA
   1,'TRAN 1      '
   2,'TRAN 2      '
   5,'TRAN 5      '
  11,'GEN 1       '
  22,'GEN 2       '
  55,'GEN 5       '
 100,'NO BUSES    '
0 / END OF OWNER DATA, BEGIN FACTS DEVICE DATA
0 / END OF FACTS DEVICE DATA
